EMPTY MOLECULE DESCRIBING GYPSUM-DL PARAMETERS
     RDKit          2D

  0  0  0  0  0  0  0  0  0  0999 V2000
M  END
>  <source>  (1) 
/Users/jake/Desktop/galene/data/lig/cofactors.smi

>  <output_folder>  (1) 
data/lig

>  <separate_output_files>  (1) 
False

>  <add_pdb_output>  (1) 
False

>  <add_html_output>  (1) 
False

>  <num_processors>  (1) 
-1

>  <start_time>  (1) 
0

>  <end_time>  (1) 
0

>  <run_time>  (1) 
0

>  <min_ph>  (1) 
6.0

>  <max_ph>  (1) 
8.0

>  <pka_precision>  (1) 
1.0

>  <thoroughness>  (1) 
3

>  <max_variants_per_compound>  (1) 
1

>  <second_embed>  (1) 
False

>  <2d_output_only>  (1) 
False

>  <skip_optimize_geometry>  (1) 
False

>  <skip_alternate_ring_conformations>  (1) 
False

>  <skip_adding_hydrogen>  (1) 
False

>  <skip_making_tautomers>  (1) 
False

>  <skip_enumerate_chiral_mol>  (1) 
False

>  <skip_enumerate_double_bonds>  (1) 
False

>  <let_tautomers_change_chirality>  (1) 
False

>  <use_durrant_lab_filters>  (1) 
False

>  <job_manager>  (1) 
multiprocessing

>  <cache_prerun>  (1) 
False

>  <test>  (1) 
False

>  <Parallelizer>  (1) 
<gypsum_dl.Parallelizer.Parallelizer object at 0x82648cd68>

$$$$
sam
     RDKit          3D

 50 52  0  0  0  0  0  0  0  0999 V2000
    0.9362    0.6103   -4.0634 C   0  0  0  0  0  0  0  0  0  0  0  0
    0.7541    1.0097   -2.3396 S   0  0  0  0  0  3  0  0  0  0  0  0
    1.0254    2.7586   -2.0806 C   0  0  0  0  0  0  0  0  0  0  0  0
    0.9892    3.1565   -0.5937 C   0  0  0  0  0  0  0  0  0  0  0  0
    1.9907    2.3895    0.2987 C   0  0  2  0  0  0  0  0  0  0  0  0
    1.8401    2.8227    1.6903 N   0  0  0  0  0  0  0  0  0  0  0  0
    3.4149    2.5756   -0.1586 C   0  0  0  0  0  0  0  0  0  0  0  0
    3.8859    3.7318   -0.3366 O   0  0  0  0  0  0  0  0  0  0  0  0
    4.2260    1.4661   -0.3624 O   0  0  0  0  0  1  0  0  0  0  0  0
   -0.8477    0.4862   -1.7480 C   0  0  0  0  0  0  0  0  0  0  0  0
   -0.8392   -1.0124   -1.4236 C   0  0  1  0  0  0  0  0  0  0  0  0
    0.1944   -1.3033   -0.5055 O   0  0  0  0  0  0  0  0  0  0  0  0
   -0.3006   -2.2242    0.4439 C   0  0  1  0  0  0  0  0  0  0  0  0
   -0.2074   -1.6415    1.7857 N   0  0  0  0  0  0  0  0  0  0  0  0
   -0.3678   -0.3417    2.1522 C   0  0  0  0  0  0  0  0  0  0  0  0
   -0.2938   -0.1473    3.4983 N   0  0  0  0  0  0  0  0  0  0  0  0
   -0.0880   -1.3931    3.9674 C   0  0  0  0  0  0  0  0  0  0  0  0
    0.0434   -1.8311    5.2803 C   0  0  0  0  0  0  0  0  0  0  0  0
   -0.0038   -0.9184    6.3801 N   0  0  0  0  0  0  0  0  0  0  0  0
    0.2154   -3.1741    5.4867 N   0  0  0  0  0  4  0  0  0  0  0  0
    0.2540   -4.0570    4.4346 C   0  0  0  0  0  0  0  0  0  0  0  0
    0.1210   -3.6128    3.1480 N   0  0  0  0  0  0  0  0  0  0  0  0
   -0.0440   -2.2826    2.9501 C   0  0  0  0  0  0  0  0  0  0  0  0
   -1.7536   -2.5759    0.1075 C   0  0  2  0  0  0  0  0  0  0  0  0
   -1.8445   -3.8443   -0.5037 O   0  0  0  0  0  0  0  0  0  0  0  0
   -2.1689   -1.4618   -0.8237 C   0  0  2  0  0  0  0  0  0  0  0  0
   -3.0588   -1.9134   -1.8139 O   0  0  0  0  0  0  0  0  0  0  0  0
    1.9055    1.0039   -4.4330 H   0  0  0  0  0  0  0  0  0  0  0  0
    0.9113   -0.4927   -4.1934 H   0  0  0  0  0  0  0  0  0  0  0  0
    0.1083    1.0696   -4.6418 H   0  0  0  0  0  0  0  0  0  0  0  0
    2.0046    3.0380   -2.5229 H   0  0  0  0  0  0  0  0  0  0  0  0
    0.2365    3.3215   -2.6242 H   0  0  0  0  0  0  0  0  0  0  0  0
   -0.0372    3.0027   -0.1989 H   0  0  0  0  0  0  0  0  0  0  0  0
    1.1941    4.2484   -0.5214 H   0  0  0  0  0  0  0  0  0  0  0  0
    1.7446    1.3054    0.2559 H   0  0  0  0  0  0  0  0  0  0  0  0
    2.4751    2.2498    2.2955 H   0  0  0  0  0  0  0  0  0  0  0  0
    2.1418    3.8227    1.7783 H   0  0  0  0  0  0  0  0  0  0  0  0
   -1.6106    0.7059   -2.5262 H   0  0  0  0  0  0  0  0  0  0  0  0
   -1.1030    1.0641   -0.8373 H   0  0  0  0  0  0  0  0  0  0  0  0
   -0.6420   -1.5813   -2.3607 H   0  0  0  0  0  0  0  0  0  0  0  0
    0.3344   -3.1379    0.4063 H   0  0  0  0  0  0  0  0  0  0  0  0
   -0.5450    0.4628    1.4511 H   0  0  0  0  0  0  0  0  0  0  0  0
    0.0854   -1.2668    7.3607 H   0  0  0  0  0  0  0  0  0  0  0  0
   -0.1185    0.1078    6.2208 H   0  0  0  0  0  0  0  0  0  0  0  0
    0.3203   -3.5422    6.4591 H   0  0  0  0  0  0  0  0  0  0  0  0
    0.3881   -5.1144    4.6229 H   0  0  0  0  0  0  0  0  0  0  0  0
   -2.3965   -2.5793    1.0165 H   0  0  0  0  0  0  0  0  0  0  0  0
   -1.2640   -3.8417   -1.3099 H   0  0  0  0  0  0  0  0  0  0  0  0
   -2.6368   -0.6482   -0.2163 H   0  0  0  0  0  0  0  0  0  0  0  0
   -3.4492   -1.1024   -2.2306 H   0  0  0  0  0  0  0  0  0  0  0  0
  2  1  1  6
  2  3  1  0
  3  4  1  0
  4  5  1  0
  5  6  1  0
  5  7  1  0
  7  8  2  0
  7  9  1  0
  2 10  1  0
 10 11  1  0
 11 12  1  0
 12 13  1  0
 13 14  1  0
 14 15  1  0
 15 16  2  0
 16 17  1  0
 17 18  2  0
 18 19  1  0
 18 20  1  0
 20 21  2  0
 21 22  1  0
 22 23  2  0
 13 24  1  0
 24 25  1  0
 24 26  1  0
 26 27  1  0
 26 11  1  0
 23 14  1  0
 23 17  1  0
  1 28  1  0
  1 29  1  0
  1 30  1  0
  3 31  1  0
  3 32  1  0
  4 33  1  0
  4 34  1  0
  5 35  1  1
  6 36  1  0
  6 37  1  0
 10 38  1  0
 10 39  1  0
 11 40  1  6
 13 41  1  1
 15 42  1  0
 19 43  1  0
 19 44  1  0
 20 45  1  0
 21 46  1  0
 24 47  1  1
 25 48  1  0
 26 49  1  1
 27 50  1  0
M  CHG  3   2   1   9  -1  20   1
M  END
>  <UniqueID>  (2) 
1

>  <SMILES>  (2) 
C[S@@+](CC[C@H](N)C(=O)[O-])C[C@H]1O[C@@H](n2cnc3c(N)[nH+]cnc32)[C@H](O)[C@@H]1O

>  <Energy>  (2) 
77.41346480708424

>  <Genealogy>  (2) 
C[S+](CC[C@H](N)C(=O)[O-])C[C@H]1O[C@@H](n2cnc3c(N)[nH+]cnc32)[C@H](O)[C@@H]1O (protonated)
C[S@@+](CC[C@H](N)C(=O)[O-])C[C@H]1O[C@@H](n2cnc3c(N)[nH+]cnc32)[C@H](O)[C@@H]1O (chirality)
C[S@@+](CC[C@H](N)C(=O)[O-])C[C@H]1O[C@@H](n2cnc3c(N)[nH+]cnc32)[C@H](O)[C@@H]1O (3D coordinates assigned)
C[S@@+](CC[C@H](N)C(=O)[O-])C[C@H]1O[C@@H](n2cnc3c(N)[nH+]cnc32)[C@H](O)[C@@H]1O (nonaromatic ring conformer: 77.41346480708424 kcal/mol)

$$$$
sah
     RDKit          3D

 46 48  0  0  0  0  0  0  0  0999 V2000
   -5.8853    2.7964    0.2980 N   0  0  0  0  0  0  0  0  0  0  0  0
   -5.4979    1.4330    0.1265 C   0  0  0  0  0  0  0  0  0  0  0  0
   -6.3891    0.5115   -0.3466 N   0  0  0  0  0  0  0  0  0  0  0  0
   -6.0320   -0.8002   -0.5298 C   0  0  0  0  0  0  0  0  0  0  0  0
   -4.7631   -1.2203   -0.2392 N   0  0  0  0  0  4  0  0  0  0  0  0
   -3.8826   -0.3062    0.2421 C   0  0  0  0  0  0  0  0  0  0  0  0
   -4.2123    0.9940    0.4223 C   0  0  0  0  0  0  0  0  0  0  0  0
   -3.1498    1.6965    0.8572 N   0  0  0  0  0  0  0  0  0  0  0  0
   -2.1733    0.7509    0.9292 C   0  0  0  0  0  0  0  0  0  0  0  0
   -2.5955   -0.4911    0.5712 N   0  0  0  0  0  0  0  0  0  0  0  0
   -1.7921   -1.7105    0.4380 C   0  0  2  0  0  0  0  0  0  0  0  0
   -0.7100   -1.6703    1.3480 O   0  0  0  0  0  0  0  0  0  0  0  0
    0.4889   -1.7800    0.6116 C   0  0  2  0  0  0  0  0  0  0  0  0
    1.5564   -0.8718    1.2358 C   0  0  0  0  0  0  0  0  0  0  0  0
    3.2101   -1.2137    0.5218 S   0  0  0  0  0  0  0  0  0  0  0  0
    3.4360    0.3903   -0.3328 C   0  0  0  0  0  0  0  0  0  0  0  0
    3.9041    1.4940    0.6290 C   0  0  0  0  0  0  0  0  0  0  0  0
    5.3316    1.2650    1.1794 C   0  0  2  0  0  0  0  0  0  0  0  0
    5.6591    2.2556    2.2070 N   0  0  0  0  0  0  0  0  0  0  0  0
    6.3613    1.3221    0.0854 C   0  0  0  0  0  0  0  0  0  0  0  0
    6.5634    2.3926   -0.5471 O   0  0  0  0  0  0  0  0  0  0  0  0
    7.0887    0.1849   -0.2428 O   0  0  0  0  0  1  0  0  0  0  0  0
    0.1935   -1.4286   -0.8427 C   0  0  1  0  0  0  0  0  0  0  0  0
    1.0390   -2.1292   -1.7182 O   0  0  0  0  0  0  0  0  0  0  0  0
   -1.2525   -1.8394   -0.9904 C   0  0  1  0  0  0  0  0  0  0  0  0
   -1.3871   -3.1572   -1.4728 O   0  0  0  0  0  0  0  0  0  0  0  0
   -5.2094    3.5066    0.6575 H   0  0  0  0  0  0  0  0  0  0  0  0
   -6.8570    3.0988    0.0645 H   0  0  0  0  0  0  0  0  0  0  0  0
   -6.7600   -1.5040   -0.9110 H   0  0  0  0  0  0  0  0  0  0  0  0
   -4.4899   -2.2164   -0.3899 H   0  0  0  0  0  0  0  0  0  0  0  0
   -1.1583    0.9767    1.2280 H   0  0  0  0  0  0  0  0  0  0  0  0
   -2.4252   -2.5877    0.6949 H   0  0  0  0  0  0  0  0  0  0  0  0
    0.8355   -2.8362    0.6822 H   0  0  0  0  0  0  0  0  0  0  0  0
    1.6172   -1.0912    2.3227 H   0  0  0  0  0  0  0  0  0  0  0  0
    1.2610    0.1936    1.1365 H   0  0  0  0  0  0  0  0  0  0  0  0
    2.4872    0.6988   -0.8190 H   0  0  0  0  0  0  0  0  0  0  0  0
    4.1797    0.2539   -1.1452 H   0  0  0  0  0  0  0  0  0  0  0  0
    3.8659    2.4684    0.0943 H   0  0  0  0  0  0  0  0  0  0  0  0
    3.1908    1.5622    1.4777 H   0  0  0  0  0  0  0  0  0  0  0  0
    5.3806    0.2588    1.6504 H   0  0  0  0  0  0  0  0  0  0  0  0
    5.0189    2.1156    3.0226 H   0  0  0  0  0  0  0  0  0  0  0  0
    5.4809    3.2177    1.8351 H   0  0  0  0  0  0  0  0  0  0  0  0
    0.2808   -0.3282   -1.0049 H   0  0  0  0  0  0  0  0  0  0  0  0
    0.9034   -1.7304   -2.6170 H   0  0  0  0  0  0  0  0  0  0  0  0
   -1.7760   -1.1550   -1.6945 H   0  0  0  0  0  0  0  0  0  0  0  0
   -0.9355   -3.7704   -0.8350 H   0  0  0  0  0  0  0  0  0  0  0  0
  1  2  1  0
  2  3  2  0
  3  4  1  0
  4  5  2  0
  5  6  1  0
  6  7  2  0
  7  8  1  0
  8  9  2  0
  9 10  1  0
 10 11  1  0
 11 12  1  0
 12 13  1  0
 13 14  1  0
 14 15  1  0
 15 16  1  0
 16 17  1  0
 17 18  1  0
 18 19  1  0
 18 20  1  0
 20 21  2  0
 20 22  1  0
 13 23  1  0
 23 24  1  0
 23 25  1  0
 25 26  1  0
  7  2  1  0
 25 11  1  0
 10  6  1  0
  1 27  1  0
  1 28  1  0
  4 29  1  0
  5 30  1  0
  9 31  1  0
 11 32  1  1
 13 33  1  6
 14 34  1  0
 14 35  1  0
 16 36  1  0
 16 37  1  0
 17 38  1  0
 17 39  1  0
 18 40  1  1
 19 41  1  0
 19 42  1  0
 23 43  1  1
 24 44  1  0
 25 45  1  6
 26 46  1  0
M  CHG  2   5   1  22  -1
M  END
>  <UniqueID>  (3) 
2

>  <SMILES>  (3) 
Nc1nc[nH+]c2c1ncn2[C@@H]1O[C@H](CSCC[C@H](N)C(=O)[O-])[C@@H](O)[C@H]1O

>  <Energy>  (3) 
82.83192084347002

>  <Genealogy>  (3) 
Nc1nc[nH+]c2c1ncn2[C@@H]1O[C@H](CSCC[C@H](N)C(=O)[O-])[C@@H](O)[C@H]1O (protonated)
Nc1nc[nH+]c2c1ncn2[C@@H]1O[C@H](CSCC[C@H](N)C(=O)[O-])[C@@H](O)[C@H]1O (3D coordinates assigned)
Nc1nc[nH+]c2c1ncn2[C@@H]1O[C@H](CSCC[C@H](N)C(=O)[O-])[C@@H](O)[C@H]1O (nonaromatic ring conformer: 82.83192084347002 kcal/mol)

$$$$
