EMPTY MOLECULE DESCRIBING GYPSUM-DL PARAMETERS
     RDKit          2D

  0  0  0  0  0  0  0  0  0  0999 V2000
M  END
>  <source>  (1) 
/Users/jake/Desktop/galene/data/cofactors.smi

>  <output_folder>  (1) 
data/lig

>  <separate_output_files>  (1) 
False

>  <add_pdb_output>  (1) 
False

>  <add_html_output>  (1) 
False

>  <num_processors>  (1) 
-1

>  <start_time>  (1) 
0

>  <end_time>  (1) 
0

>  <run_time>  (1) 
0

>  <min_ph>  (1) 
-6.0

>  <max_ph>  (1) 
-8.0

>  <pka_precision>  (1) 
1.0

>  <thoroughness>  (1) 
3

>  <max_variants_per_compound>  (1) 
5

>  <second_embed>  (1) 
False

>  <2d_output_only>  (1) 
False

>  <skip_optimize_geometry>  (1) 
False

>  <skip_alternate_ring_conformations>  (1) 
False

>  <skip_adding_hydrogen>  (1) 
False

>  <skip_making_tautomers>  (1) 
False

>  <skip_enumerate_chiral_mol>  (1) 
False

>  <skip_enumerate_double_bonds>  (1) 
False

>  <let_tautomers_change_chirality>  (1) 
False

>  <use_durrant_lab_filters>  (1) 
False

>  <job_manager>  (1) 
multiprocessing

>  <cache_prerun>  (1) 
False

>  <test>  (1) 
False

>  <Parallelizer>  (1) 
<gypsum_dl.Parallelizer.Parallelizer object at 0x818e53e10>

$$$$
sam
     RDKit          3D

 51 53  0  0  0  0  0  0  0  0999 V2000
   -2.1365   -2.2664    1.6328 C   0  0  0  0  0  0  0  0  0  0  0  0
   -1.4103   -1.7143    0.1067 S   0  0  0  0  0  3  0  0  0  0  0  0
   -0.8048   -3.1078   -0.8367 C   0  0  0  0  0  0  0  0  0  0  0  0
    0.7274   -3.0918   -0.9337 C   0  0  0  0  0  0  0  0  0  0  0  0
    1.4333   -3.3630    0.4159 C   0  0  2  0  0  0  0  0  0  0  0  0
    2.8739   -3.1204    0.3091 N   0  0  0  0  0  0  0  0  0  0  0  0
    1.1944   -4.7710    0.8853 C   0  0  0  0  0  0  0  0  0  0  0  0
    1.6785   -5.7455    0.2471 O   0  0  0  0  0  0  0  0  0  0  0  0
    0.4186   -5.0013    2.0189 O   0  0  0  0  0  0  0  0  0  0  0  0
   -2.5809   -0.7261   -0.8176 C   0  0  0  0  0  0  0  0  0  0  0  0
   -1.9658    0.5940   -1.3077 C   0  0  1  0  0  0  0  0  0  0  0  0
   -1.4259    1.3179   -0.2206 O   0  0  0  0  0  0  0  0  0  0  0  0
   -0.2805    1.9685   -0.7146 C   0  0  1  0  0  0  0  0  0  0  0  0
    0.6694    2.2441    0.3663 N   0  0  0  0  0  0  0  0  0  0  0  0
    1.5553    3.2722    0.4259 C   0  0  0  0  0  0  0  0  0  0  0  0
    2.3894    3.2064    1.4999 N   0  0  0  0  0  0  0  0  0  0  0  0
    1.9934    2.0757    2.1168 C   0  0  0  0  0  0  0  0  0  0  0  0
    2.4990    1.4690    3.2658 C   0  0  0  0  0  0  0  0  0  0  0  0
    3.4797    1.9936    3.9391 N   0  0  0  0  0  4  0  0  0  0  0  0
    1.9232    0.2881    3.6619 N   0  0  0  0  0  0  0  0  0  0  0  0
    0.8928   -0.2754    2.9507 C   0  0  0  0  0  0  0  0  0  0  0  0
    0.4128    0.3309    1.8236 N   0  0  0  0  0  0  0  0  0  0  0  0
    0.9758    1.4989    1.4377 C   0  0  0  0  0  0  0  0  0  0  0  0
    0.3386    1.0646   -1.7635 C   0  0  2  0  0  0  0  0  0  0  0  0
    1.0731    1.8116   -2.6987 O   0  0  0  0  0  0  0  0  0  0  0  0
   -0.8723    0.3881   -2.3739 C   0  0  2  0  0  0  0  0  0  0  0  0
   -1.2407    1.0138   -3.5780 O   0  0  0  0  0  0  0  0  0  0  0  0
   -3.0107   -2.9137    1.4147 H   0  0  0  0  0  0  0  0  0  0  0  0
   -1.3872   -2.8404    2.2139 H   0  0  0  0  0  0  0  0  0  0  0  0
   -2.4639   -1.3870    2.2249 H   0  0  0  0  0  0  0  0  0  0  0  0
   -1.1586   -4.0541   -0.3765 H   0  0  0  0  0  0  0  0  0  0  0  0
   -1.2274   -3.0562   -1.8621 H   0  0  0  0  0  0  0  0  0  0  0  0
    1.0445   -3.8558   -1.6776 H   0  0  0  0  0  0  0  0  0  0  0  0
    1.0503   -2.1050   -1.3288 H   0  0  0  0  0  0  0  0  0  0  0  0
    1.0310   -2.6690    1.1844 H   0  0  0  0  0  0  0  0  0  0  0  0
    3.2580   -3.6480   -0.5092 H   0  0  0  0  0  0  0  0  0  0  0  0
    3.0289   -2.1025    0.1220 H   0  0  0  0  0  0  0  0  0  0  0  0
    0.2403   -5.9442    2.3434 H   0  0  0  0  0  0  0  0  0  0  0  0
   -3.4432   -0.4936   -0.1575 H   0  0  0  0  0  0  0  0  0  0  0  0
   -2.9664   -1.3100   -1.6801 H   0  0  0  0  0  0  0  0  0  0  0  0
   -2.7953    1.1998   -1.7391 H   0  0  0  0  0  0  0  0  0  0  0  0
   -0.5969    2.9328   -1.1781 H   0  0  0  0  0  0  0  0  0  0  0  0
    1.6094    4.0581   -0.3159 H   0  0  0  0  0  0  0  0  0  0  0  0
    3.8504    1.5272    4.7976 H   0  0  0  0  0  0  0  0  0  0  0  0
    3.9246    2.8927    3.6460 H   0  0  0  0  0  0  0  0  0  0  0  0
    2.2679   -0.2051    4.5167 H   0  0  0  0  0  0  0  0  0  0  0  0
    0.4577   -1.2098    3.2802 H   0  0  0  0  0  0  0  0  0  0  0  0
    0.9903    0.3064   -1.2691 H   0  0  0  0  0  0  0  0  0  0  0  0
    1.5712    1.1544   -3.2513 H   0  0  0  0  0  0  0  0  0  0  0  0
   -0.6424   -0.6855   -2.5631 H   0  0  0  0  0  0  0  0  0  0  0  0
   -1.9101    0.4202   -4.0082 H   0  0  0  0  0  0  0  0  0  0  0  0
  2  1  1  1
  2  3  1  0
  3  4  1  0
  4  5  1  0
  5  6  1  0
  5  7  1  0
  7  8  2  0
  7  9  1  0
  2 10  1  0
 10 11  1  0
 11 12  1  0
 12 13  1  0
 13 14  1  0
 14 15  1  0
 15 16  2  0
 16 17  1  0
 17 18  1  0
 18 19  2  3
 18 20  1  0
 20 21  1  0
 21 22  2  0
 22 23  1  0
 13 24  1  0
 24 25  1  0
 24 26  1  0
 26 27  1  0
 26 11  1  0
 23 14  1  0
 23 17  2  0
  1 28  1  0
  1 29  1  0
  1 30  1  0
  3 31  1  0
  3 32  1  0
  4 33  1  0
  4 34  1  0
  5 35  1  1
  6 36  1  0
  6 37  1  0
  9 38  1  0
 10 39  1  0
 10 40  1  0
 11 41  1  6
 13 42  1  6
 15 43  1  0
 19 44  1  0
 19 45  1  0
 20 46  1  0
 21 47  1  0
 24 48  1  1
 25 49  1  0
 26 50  1  6
 27 51  1  0
M  CHG  2   2   1  19   1
M  END
>  <UniqueID>  (2) 
1

>  <SMILES>  (2) 
C[S@@+](CC[C@H](N)C(=O)O)C[C@H]1O[C@@H](n2cnc3c(=[NH2+])[nH]cnc32)[C@H](O)[C@@H]1O

>  <Energy>  (2) 
77.49933158624566

>  <Genealogy>  (2) 
C[S+](CC[C@H](N)C(=O)O)C[C@H]1O[C@@H](n2cnc3c([NH3+])ncnc32)[C@H](O)[C@@H]1O (protonated)
C[S+](CC[C@H](N)C(=O)O)C[C@H]1O[C@@H](n2cnc3c(=[NH2+])[nH]cnc32)[C@H](O)[C@@H]1O (tautomer)
C[S@@+](CC[C@H](N)C(=O)O)C[C@H]1O[C@@H](n2cnc3c(=[NH2+])[nH]cnc32)[C@H](O)[C@@H]1O (chirality)
C[S@@+](CC[C@H](N)C(=O)O)C[C@H]1O[C@@H](n2cnc3c(=[NH2+])[nH]cnc32)[C@H](O)[C@@H]1O (3D coordinates assigned)
C[S@@+](CC[C@H](N)C(=O)O)C[C@H]1O[C@@H](n2cnc3c(=[NH2+])[nH]cnc32)[C@H](O)[C@@H]1O (nonaromatic ring conformer: 77.49933158624566 kcal/mol)

$$$$
sam
     RDKit          3D

 51 53  0  0  0  0  0  0  0  0999 V2000
    2.4034    3.2010   -1.5169 C   0  0  0  0  0  0  0  0  0  0  0  0
    1.4930    2.6274   -0.0980 S   0  0  0  0  0  3  0  0  0  0  0  0
    1.7034    0.8719    0.1476 C   0  0  0  0  0  0  0  0  0  0  0  0
    3.1502    0.5492    0.5306 C   0  0  0  0  0  0  0  0  0  0  0  0
    3.3509   -0.9579    0.7721 C   0  0  2  0  0  0  0  0  0  0  0  0
    2.5672   -1.4033    1.9270 N   0  0  0  0  0  0  0  0  0  0  0  0
    4.8105   -1.2684    0.9750 C   0  0  0  0  0  0  0  0  0  0  0  0
    5.3796   -2.1241    0.2462 O   0  0  0  0  0  0  0  0  0  0  0  0
    5.5302   -0.6249    1.9780 O   0  0  0  0  0  0  0  0  0  0  0  0
   -0.2374    3.0794   -0.1852 C   0  0  0  0  0  0  0  0  0  0  0  0
   -0.8685    2.7164   -1.5405 C   0  0  1  0  0  0  0  0  0  0  0  0
   -0.7846    1.3199   -1.7445 O   0  0  0  0  0  0  0  0  0  0  0  0
   -2.0935    0.8242   -1.9072 C   0  0  1  0  0  0  0  0  0  0  0  0
   -2.2365   -0.4520   -1.2053 N   0  0  0  0  0  0  0  0  0  0  0  0
   -1.8306   -0.7637    0.0536 C   0  0  0  0  0  0  0  0  0  0  0  0
   -2.1726   -2.0256    0.4349 N   0  0  0  0  0  0  0  0  0  0  0  0
   -2.8240   -2.4946   -0.6459 C   0  0  0  0  0  0  0  0  0  0  0  0
   -3.4249   -3.7332   -0.8460 C   0  0  0  0  0  0  0  0  0  0  0  0
   -3.3876   -4.7563    0.1554 N   0  0  0  0  0  4  0  0  0  0  0  0
   -4.0423   -3.9476   -2.0482 N   0  0  0  0  0  0  0  0  0  0  0  0
   -4.0775   -2.9777   -3.0183 C   0  0  0  0  0  0  0  0  0  0  0  0
   -3.4858   -1.7632   -2.8071 N   0  0  0  0  0  0  0  0  0  0  0  0
   -2.8685   -1.5565   -1.6189 C   0  0  0  0  0  0  0  0  0  0  0  0
   -3.0718    1.8520   -1.3670 C   0  0  2  0  0  0  0  0  0  0  0  0
   -4.2968    1.7876   -2.0503 O   0  0  0  0  0  0  0  0  0  0  0  0
   -2.3385    3.1488   -1.6078 C   0  0  2  0  0  0  0  0  0  0  0  0
   -2.6185    3.6549   -2.8902 O   0  0  0  0  0  0  0  0  0  0  0  0
    2.1317    4.2554   -1.7301 H   0  0  0  0  0  0  0  0  0  0  0  0
    2.1607    2.5698   -2.3966 H   0  0  0  0  0  0  0  0  0  0  0  0
    3.4912    3.1402   -1.3096 H   0  0  0  0  0  0  0  0  0  0  0  0
    1.0193    0.5513    0.9598 H   0  0  0  0  0  0  0  0  0  0  0  0
    1.4331    0.3371   -0.7867 H   0  0  0  0  0  0  0  0  0  0  0  0
    3.4263    1.1185    1.4457 H   0  0  0  0  0  0  0  0  0  0  0  0
    3.8200    0.8744   -0.2955 H   0  0  0  0  0  0  0  0  0  0  0  0
    2.9942   -1.5057   -0.1295 H   0  0  0  0  0  0  0  0  0  0  0  0
    2.9419   -0.9586    2.7971 H   0  0  0  0  0  0  0  0  0  0  0  0
    2.6814   -2.4382    2.0299 H   0  0  0  0  0  0  0  0  0  0  0  0
    6.5108   -0.8300    2.1268 H   0  0  0  0  0  0  0  0  0  0  0  0
   -0.7817    2.5694    0.6382 H   0  0  0  0  0  0  0  0  0  0  0  0
   -0.3102    4.1763   -0.0250 H   0  0  0  0  0  0  0  0  0  0  0  0
   -0.2950    3.2305   -2.3427 H   0  0  0  0  0  0  0  0  0  0  0  0
   -2.2672    0.6731   -2.9973 H   0  0  0  0  0  0  0  0  0  0  0  0
   -1.3048   -0.0744    0.7000 H   0  0  0  0  0  0  0  0  0  0  0  0
   -3.7755   -4.3813    1.0511 H   0  0  0  0  0  0  0  0  0  0  0  0
   -3.9601   -5.5770   -0.1477 H   0  0  0  0  0  0  0  0  0  0  0  0
   -2.3976   -5.0610    0.2974 H   0  0  0  0  0  0  0  0  0  0  0  0
   -4.5772   -3.1752   -3.9568 H   0  0  0  0  0  0  0  0  0  0  0  0
   -3.2241    1.7053   -0.2711 H   0  0  0  0  0  0  0  0  0  0  0  0
   -4.9285    2.3642   -1.5465 H   0  0  0  0  0  0  0  0  0  0  0  0
   -2.5955    3.9042   -0.8270 H   0  0  0  0  0  0  0  0  0  0  0  0
   -3.4458    4.1982   -2.8105 H   0  0  0  0  0  0  0  0  0  0  0  0
  2  1  1  6
  2  3  1  0
  3  4  1  0
  4  5  1  0
  5  6  1  0
  5  7  1  0
  7  8  2  0
  7  9  1  0
  2 10  1  0
 10 11  1  0
 11 12  1  0
 12 13  1  0
 13 14  1  0
 14 15  1  0
 15 16  2  0
 16 17  1  0
 17 18  2  0
 18 19  1  0
 18 20  1  0
 20 21  2  0
 21 22  1  0
 22 23  2  0
 13 24  1  0
 24 25  1  0
 24 26  1  0
 26 27  1  0
 26 11  1  0
 23 14  1  0
 23 17  1  0
  1 28  1  0
  1 29  1  0
  1 30  1  0
  3 31  1  0
  3 32  1  0
  4 33  1  0
  4 34  1  0
  5 35  1  6
  6 36  1  0
  6 37  1  0
  9 38  1  0
 10 39  1  0
 10 40  1  0
 11 41  1  6
 13 42  1  6
 15 43  1  0
 19 44  1  0
 19 45  1  0
 19 46  1  0
 21 47  1  0
 24 48  1  1
 25 49  1  0
 26 50  1  1
 27 51  1  0
M  CHG  2   2   1  19   1
M  END
>  <UniqueID>  (3) 
2

>  <SMILES>  (3) 
C[S@+](CC[C@H](N)C(=O)O)C[C@H]1O[C@@H](n2cnc3c([NH3+])ncnc32)[C@H](O)[C@@H]1O

>  <Energy>  (3) 
77.62155552565618

>  <Genealogy>  (3) 
C[S+](CC[C@H](N)C(=O)O)C[C@H]1O[C@@H](n2cnc3c([NH3+])ncnc32)[C@H](O)[C@@H]1O (protonated)
C[S@+](CC[C@H](N)C(=O)O)C[C@H]1O[C@@H](n2cnc3c([NH3+])ncnc32)[C@H](O)[C@@H]1O (chirality)
C[S@+](CC[C@H](N)C(=O)O)C[C@H]1O[C@@H](n2cnc3c([NH3+])ncnc32)[C@H](O)[C@@H]1O (3D coordinates assigned)
C[S@+](CC[C@H](N)C(=O)O)C[C@H]1O[C@@H](n2cnc3c([NH3+])ncnc32)[C@H](O)[C@@H]1O (nonaromatic ring conformer: 77.62155552565618 kcal/mol)

$$$$
sam
     RDKit          3D

 51 53  0  0  0  0  0  0  0  0999 V2000
    1.3741    5.2744    0.8840 C   0  0  0  0  0  0  0  0  0  0  0  0
    0.9233    3.7343    0.1198 S   0  0  0  0  0  3  0  0  0  0  0  0
    2.3763    2.7179   -0.0993 C   0  0  0  0  0  0  0  0  0  0  0  0
    2.5411    2.3435   -1.5759 C   0  0  0  0  0  0  0  0  0  0  0  0
    3.7114    1.3668   -1.7989 C   0  0  2  0  0  0  0  0  0  0  0  0
    3.9991    1.2494   -3.2305 N   0  0  0  0  0  0  0  0  0  0  0  0
    3.4302    0.0081   -1.1958 C   0  0  0  0  0  0  0  0  0  0  0  0
    4.1724   -0.4305   -0.2781 O   0  0  0  0  0  0  0  0  0  0  0  0
    2.3648   -0.7742   -1.6353 O   0  0  0  0  0  0  0  0  0  0  0  0
   -0.2762    2.8927    1.1423 C   0  0  0  0  0  0  0  0  0  0  0  0
   -1.0424    1.8296    0.3431 C   0  0  1  0  0  0  0  0  0  0  0  0
   -0.1461    0.8926   -0.2109 O   0  0  0  0  0  0  0  0  0  0  0  0
   -0.7322   -0.3884   -0.1243 C   0  0  1  0  0  0  0  0  0  0  0  0
    0.1635   -1.2784    0.6167 N   0  0  0  0  0  0  0  0  0  0  0  0
    0.8597   -1.0092    1.7528 C   0  0  0  0  0  0  0  0  0  0  0  0
    1.5765   -2.0725    2.2114 N   0  0  0  0  0  0  0  0  0  0  0  0
    1.2936   -3.0323    1.3095 C   0  0  0  0  0  0  0  0  0  0  0  0
    1.7373   -4.3511    1.2520 C   0  0  0  0  0  0  0  0  0  0  0  0
    2.5946   -4.9028    2.2577 N   0  0  0  0  0  4  0  0  0  0  0  0
    1.2592   -5.1321    0.2361 N   0  0  0  0  0  0  0  0  0  0  0  0
    0.3982   -4.6315   -0.7086 C   0  0  0  0  0  0  0  0  0  0  0  0
   -0.0181   -3.3301   -0.6485 N   0  0  0  0  0  0  0  0  0  0  0  0
    0.4464   -2.5623    0.3660 C   0  0  0  0  0  0  0  0  0  0  0  0
   -2.0924   -0.2836    0.5741 C   0  0  2  0  0  0  0  0  0  0  0  0
   -3.1515   -0.3978   -0.3494 O   0  0  0  0  0  0  0  0  0  0  0  0
   -2.0411    1.0832    1.2200 C   0  0  2  0  0  0  0  0  0  0  0  0
   -3.2902    1.7249    1.2209 O   0  0  0  0  0  0  0  0  0  0  0  0
    2.1446    5.7823    0.2703 H   0  0  0  0  0  0  0  0  0  0  0  0
    1.7787    5.0796    1.8984 H   0  0  0  0  0  0  0  0  0  0  0  0
    0.4787    5.9251    0.9623 H   0  0  0  0  0  0  0  0  0  0  0  0
    2.2765    1.8066    0.5262 H   0  0  0  0  0  0  0  0  0  0  0  0
    3.2706    3.2788    0.2462 H   0  0  0  0  0  0  0  0  0  0  0  0
    1.5981    1.9027   -1.9654 H   0  0  0  0  0  0  0  0  0  0  0  0
    2.7361    3.2756   -2.1516 H   0  0  0  0  0  0  0  0  0  0  0  0
    4.6146    1.7966   -1.3088 H   0  0  0  0  0  0  0  0  0  0  0  0
    4.8111    0.6013   -3.3577 H   0  0  0  0  0  0  0  0  0  0  0  0
    3.1789    0.8261   -3.7225 H   0  0  0  0  0  0  0  0  0  0  0  0
    1.7341   -0.4597   -2.3619 H   0  0  0  0  0  0  0  0  0  0  0  0
    0.2535    2.4280    2.0008 H   0  0  0  0  0  0  0  0  0  0  0  0
   -0.9941    3.6424    1.5379 H   0  0  0  0  0  0  0  0  0  0  0  0
   -1.5802    2.3316   -0.4936 H   0  0  0  0  0  0  0  0  0  0  0  0
   -0.8590   -0.7820   -1.1573 H   0  0  0  0  0  0  0  0  0  0  0  0
    0.8444   -0.0491    2.2527 H   0  0  0  0  0  0  0  0  0  0  0  0
    3.2961   -4.1902    2.5640 H   0  0  0  0  0  0  0  0  0  0  0  0
    2.0130   -5.1983    3.0742 H   0  0  0  0  0  0  0  0  0  0  0  0
    3.1038   -5.7302    1.8717 H   0  0  0  0  0  0  0  0  0  0  0  0
    0.0434   -5.2720   -1.5042 H   0  0  0  0  0  0  0  0  0  0  0  0
   -2.2181   -1.0711    1.3506 H   0  0  0  0  0  0  0  0  0  0  0  0
   -3.0292    0.2976   -1.0484 H   0  0  0  0  0  0  0  0  0  0  0  0
   -1.6518    0.9845    2.2620 H   0  0  0  0  0  0  0  0  0  0  0  0
   -3.8336    1.2773    1.9209 H   0  0  0  0  0  0  0  0  0  0  0  0
  2  1  1  1
  2  3  1  0
  3  4  1  0
  4  5  1  0
  5  6  1  0
  5  7  1  0
  7  8  2  0
  7  9  1  0
  2 10  1  0
 10 11  1  0
 11 12  1  0
 12 13  1  0
 13 14  1  0
 14 15  1  0
 15 16  2  0
 16 17  1  0
 17 18  2  0
 18 19  1  0
 18 20  1  0
 20 21  2  0
 21 22  1  0
 22 23  2  0
 13 24  1  0
 24 25  1  0
 24 26  1  0
 26 27  1  0
 26 11  1  0
 23 14  1  0
 23 17  1  0
  1 28  1  0
  1 29  1  0
  1 30  1  0
  3 31  1  0
  3 32  1  0
  4 33  1  0
  4 34  1  0
  5 35  1  1
  6 36  1  0
  6 37  1  0
  9 38  1  0
 10 39  1  0
 10 40  1  0
 11 41  1  6
 13 42  1  6
 15 43  1  0
 19 44  1  0
 19 45  1  0
 19 46  1  0
 21 47  1  0
 24 48  1  1
 25 49  1  0
 26 50  1  1
 27 51  1  0
M  CHG  2   2   1  19   1
M  END
>  <UniqueID>  (4) 
3

>  <SMILES>  (4) 
C[S@@+](CC[C@H](N)C(=O)O)C[C@H]1O[C@@H](n2cnc3c([NH3+])ncnc32)[C@H](O)[C@@H]1O

>  <Energy>  (4) 
77.91298386484495

>  <Genealogy>  (4) 
C[S+](CC[C@H](N)C(=O)O)C[C@H]1O[C@@H](n2cnc3c([NH3+])ncnc32)[C@H](O)[C@@H]1O (protonated)
C[S@@+](CC[C@H](N)C(=O)O)C[C@H]1O[C@@H](n2cnc3c([NH3+])ncnc32)[C@H](O)[C@@H]1O (chirality)
C[S@@+](CC[C@H](N)C(=O)O)C[C@H]1O[C@@H](n2cnc3c([NH3+])ncnc32)[C@H](O)[C@@H]1O (3D coordinates assigned)
C[S@@+](CC[C@H](N)C(=O)O)C[C@H]1O[C@@H](n2cnc3c([NH3+])ncnc32)[C@H](O)[C@@H]1O (nonaromatic ring conformer: 77.91298386484495 kcal/mol)

$$$$
sam
     RDKit          3D

 51 53  0  0  0  0  0  0  0  0999 V2000
   -0.2205    0.1810   -3.2827 C   0  0  0  0  0  0  0  0  0  0  0  0
   -0.7377   -0.6031   -1.7699 S   0  0  0  0  0  3  0  0  0  0  0  0
   -0.8794   -2.3658   -2.0263 C   0  0  0  0  0  0  0  0  0  0  0  0
    0.4038   -3.0926   -1.5999 C   0  0  0  0  0  0  0  0  0  0  0  0
    0.6466   -3.0562   -0.0767 C   0  0  2  0  0  0  0  0  0  0  0  0
    1.9573   -3.6295    0.2320 N   0  0  0  0  0  0  0  0  0  0  0  0
   -0.4264   -3.8186    0.6568 C   0  0  0  0  0  0  0  0  0  0  0  0
   -1.3216   -3.1921    1.2839 O   0  0  0  0  0  0  0  0  0  0  0  0
   -0.4652   -5.2105    0.6230 O   0  0  0  0  0  0  0  0  0  0  0  0
   -2.2767    0.0808   -1.1554 C   0  0  0  0  0  0  0  0  0  0  0  0
   -2.0572    1.1434   -0.0632 C   0  0  1  0  0  0  0  0  0  0  0  0
   -1.2197    0.6258    0.9512 O   0  0  0  0  0  0  0  0  0  0  0  0
   -0.1967    1.5673    1.1910 C   0  0  1  0  0  0  0  0  0  0  0  0
    1.0529    0.8728    1.5362 N   0  0  0  0  0  0  0  0  0  0  0  0
    2.3374    1.2440    1.2742 C   0  0  0  0  0  0  0  0  0  0  0  0
    3.2658    0.4271    1.8415 N   0  0  0  0  0  0  0  0  0  0  0  0
    2.5092   -0.4701    2.5013 C   0  0  0  0  0  0  0  0  0  0  0  0
    2.9023   -1.5464    3.2954 C   0  0  0  0  0  0  0  0  0  0  0  0
    4.1550   -1.8405    3.4742 N   0  0  0  0  0  4  0  0  0  0  0  0
    1.9135   -2.2904    3.8851 N   0  0  0  0  0  0  0  0  0  0  0  0
    0.5859   -1.9781    3.7094 C   0  0  0  0  0  0  0  0  0  0  0  0
    0.2173   -0.9189    2.9291 N   0  0  0  0  0  0  0  0  0  0  0  0
    1.1959   -0.1941    2.3348 C   0  0  0  0  0  0  0  0  0  0  0  0
   -0.0564    2.4302   -0.0565 C   0  0  2  0  0  0  0  0  0  0  0  0
    0.4152    3.7126    0.2685 O   0  0  0  0  0  0  0  0  0  0  0  0
   -1.4647    2.4502   -0.6049 C   0  0  2  0  0  0  0  0  0  0  0  0
   -2.1897    3.5416   -0.0919 O   0  0  0  0  0  0  0  0  0  0  0  0
   -1.0489    0.1516   -4.0209 H   0  0  0  0  0  0  0  0  0  0  0  0
    0.0650    1.2333   -3.0879 H   0  0  0  0  0  0  0  0  0  0  0  0
    0.6562   -0.3593   -3.6938 H   0  0  0  0  0  0  0  0  0  0  0  0
   -1.7541   -2.7609   -1.4688 H   0  0  0  0  0  0  0  0  0  0  0  0
   -1.0611   -2.5522   -3.1064 H   0  0  0  0  0  0  0  0  0  0  0  0
    0.3460   -4.1501   -1.9387 H   0  0  0  0  0  0  0  0  0  0  0  0
    1.2668   -2.6276   -2.1260 H   0  0  0  0  0  0  0  0  0  0  0  0
    0.6378   -1.9988    0.2649 H   0  0  0  0  0  0  0  0  0  0  0  0
    2.0863   -3.6122    1.2701 H   0  0  0  0  0  0  0  0  0  0  0  0
    2.6932   -2.9933   -0.1551 H   0  0  0  0  0  0  0  0  0  0  0  0
    0.2233   -5.7452    0.1056 H   0  0  0  0  0  0  0  0  0  0  0  0
   -2.8599    0.5081   -1.9995 H   0  0  0  0  0  0  0  0  0  0  0  0
   -2.8766   -0.7458   -0.7199 H   0  0  0  0  0  0  0  0  0  0  0  0
   -3.0536    1.3517    0.3875 H   0  0  0  0  0  0  0  0  0  0  0  0
   -0.5001    2.2015    2.0548 H   0  0  0  0  0  0  0  0  0  0  0  0
    2.6083    2.1098    0.6847 H   0  0  0  0  0  0  0  0  0  0  0  0
    4.4345   -2.6501    4.0707 H   0  0  0  0  0  0  0  0  0  0  0  0
    4.9147   -1.2790    3.0310 H   0  0  0  0  0  0  0  0  0  0  0  0
    2.1590   -3.1107    4.4843 H   0  0  0  0  0  0  0  0  0  0  0  0
   -0.1779   -2.5768    4.1886 H   0  0  0  0  0  0  0  0  0  0  0  0
    0.6220    1.9379   -0.7912 H   0  0  0  0  0  0  0  0  0  0  0  0
    0.5880    4.1737   -0.5913 H   0  0  0  0  0  0  0  0  0  0  0  0
   -1.4596    2.4809   -1.7194 H   0  0  0  0  0  0  0  0  0  0  0  0
   -2.0222    4.3101   -0.6975 H   0  0  0  0  0  0  0  0  0  0  0  0
  2  1  1  6
  2  3  1  0
  3  4  1  0
  4  5  1  0
  5  6  1  0
  5  7  1  0
  7  8  2  0
  7  9  1  0
  2 10  1  0
 10 11  1  0
 11 12  1  0
 12 13  1  0
 13 14  1  0
 14 15  1  0
 15 16  2  0
 16 17  1  0
 17 18  1  0
 18 19  2  3
 18 20  1  0
 20 21  1  0
 21 22  2  0
 22 23  1  0
 13 24  1  0
 24 25  1  0
 24 26  1  0
 26 27  1  0
 26 11  1  0
 23 14  1  0
 23 17  2  0
  1 28  1  0
  1 29  1  0
  1 30  1  0
  3 31  1  0
  3 32  1  0
  4 33  1  0
  4 34  1  0
  5 35  1  1
  6 36  1  0
  6 37  1  0
  9 38  1  0
 10 39  1  0
 10 40  1  0
 11 41  1  1
 13 42  1  1
 15 43  1  0
 19 44  1  0
 19 45  1  0
 20 46  1  0
 21 47  1  0
 24 48  1  6
 25 49  1  0
 26 50  1  6
 27 51  1  0
M  CHG  2   2   1  19   1
M  END
>  <UniqueID>  (5) 
4

>  <SMILES>  (5) 
C[S@+](CC[C@H](N)C(=O)O)C[C@H]1O[C@@H](n2cnc3c(=[NH2+])[nH]cnc32)[C@H](O)[C@@H]1O

>  <Energy>  (5) 
77.99909732715915

>  <Genealogy>  (5) 
C[S+](CC[C@H](N)C(=O)O)C[C@H]1O[C@@H](n2cnc3c([NH3+])ncnc32)[C@H](O)[C@@H]1O (protonated)
C[S+](CC[C@H](N)C(=O)O)C[C@H]1O[C@@H](n2cnc3c(=[NH2+])[nH]cnc32)[C@H](O)[C@@H]1O (tautomer)
C[S@+](CC[C@H](N)C(=O)O)C[C@H]1O[C@@H](n2cnc3c(=[NH2+])[nH]cnc32)[C@H](O)[C@@H]1O (chirality)
C[S@+](CC[C@H](N)C(=O)O)C[C@H]1O[C@@H](n2cnc3c(=[NH2+])[nH]cnc32)[C@H](O)[C@@H]1O (3D coordinates assigned)
C[S@+](CC[C@H](N)C(=O)O)C[C@H]1O[C@@H](n2cnc3c(=[NH2+])[nH]cnc32)[C@H](O)[C@@H]1O (nonaromatic ring conformer: 77.99909732715915 kcal/mol)

$$$$
sam
     RDKit          3D

 51 53  0  0  0  0  0  0  0  0999 V2000
    1.9642    4.1036    1.9509 C   0  0  0  0  0  0  0  0  0  0  0  0
    1.0641    3.2538    0.6735 S   0  0  0  0  0  3  0  0  0  0  0  0
    1.4712    3.9088   -0.9394 C   0  0  0  0  0  0  0  0  0  0  0  0
    2.9152    3.5737   -1.3300 C   0  0  0  0  0  0  0  0  0  0  0  0
    3.2793    4.1521   -2.7095 C   0  0  2  0  0  0  0  0  0  0  0  0
    2.4732    3.5290   -3.7628 N   0  0  0  0  0  0  0  0  0  0  0  0
    4.7533    3.9795   -2.9900 C   0  0  0  0  0  0  0  0  0  0  0  0
    5.4696    4.9938   -3.2003 O   0  0  0  0  0  0  0  0  0  0  0  0
    5.3403    2.7162   -3.0276 O   0  0  0  0  0  0  0  0  0  0  0  0
    1.3289    1.4886    0.8093 C   0  0  0  0  0  0  0  0  0  0  0  0
    0.5647    0.7032   -0.2685 C   0  0  1  0  0  0  0  0  0  0  0  0
    0.9676   -0.6503   -0.2121 O   0  0  0  0  0  0  0  0  0  0  0  0
   -0.1698   -1.4347    0.0714 C   0  0  1  0  0  0  0  0  0  0  0  0
    0.1614   -2.4626    1.0590 N   0  0  0  0  0  0  0  0  0  0  0  0
    0.9960   -2.3584    2.1270 C   0  0  0  0  0  0  0  0  0  0  0  0
    1.0008   -3.4666    2.9187 N   0  0  0  0  0  0  0  0  0  0  0  0
    0.1171   -4.2744    2.3025 C   0  0  0  0  0  0  0  0  0  0  0  0
   -0.3205   -5.5443    2.6651 C   0  0  0  0  0  0  0  0  0  0  0  0
    0.1784   -6.2049    3.8338 N   0  0  0  0  0  4  0  0  0  0  0  0
   -1.2694   -6.1338    1.8748 N   0  0  0  0  0  0  0  0  0  0  0  0
   -1.7702   -5.5017    0.7646 C   0  0  0  0  0  0  0  0  0  0  0  0
   -1.3312   -4.2537    0.4193 N   0  0  0  0  0  0  0  0  0  0  0  0
   -0.3889   -3.6740    1.2017 C   0  0  0  0  0  0  0  0  0  0  0  0
   -1.2724   -0.5280    0.5906 C   0  0  2  0  0  0  0  0  0  0  0  0
   -2.5390   -1.0211    0.2379 O   0  0  0  0  0  0  0  0  0  0  0  0
   -0.9570    0.7836   -0.0795 C   0  0  2  0  0  0  0  0  0  0  0  0
   -1.5953    0.8632   -1.3294 O   0  0  0  0  0  0  0  0  0  0  0  0
    3.0430    3.8567    1.8763 H   0  0  0  0  0  0  0  0  0  0  0  0
    1.5834    3.7858    2.9431 H   0  0  0  0  0  0  0  0  0  0  0  0
    1.8255    5.1983    1.8365 H   0  0  0  0  0  0  0  0  0  0  0  0
    0.7628    3.4862   -1.6821 H   0  0  0  0  0  0  0  0  0  0  0  0
    1.3333    5.0107   -0.9142 H   0  0  0  0  0  0  0  0  0  0  0  0
    3.0498    2.4713   -1.3390 H   0  0  0  0  0  0  0  0  0  0  0  0
    3.6015    4.0006   -0.5661 H   0  0  0  0  0  0  0  0  0  0  0  0
    3.0523    5.2425   -2.6965 H   0  0  0  0  0  0  0  0  0  0  0  0
    2.7024    2.5106   -3.8289 H   0  0  0  0  0  0  0  0  0  0  0  0
    2.7220    3.9673   -4.6797 H   0  0  0  0  0  0  0  0  0  0  0  0
    4.8032    1.8733   -2.8676 H   0  0  0  0  0  0  0  0  0  0  0  0
    1.0114    1.1538    1.8200 H   0  0  0  0  0  0  0  0  0  0  0  0
    2.4166    1.2874    0.7122 H   0  0  0  0  0  0  0  0  0  0  0  0
    0.8505    1.1019   -1.2658 H   0  0  0  0  0  0  0  0  0  0  0  0
   -0.4928   -1.9223   -0.8767 H   0  0  0  0  0  0  0  0  0  0  0  0
    1.5867   -1.4771    2.3419 H   0  0  0  0  0  0  0  0  0  0  0  0
   -0.1007   -5.6605    4.6815 H   0  0  0  0  0  0  0  0  0  0  0  0
    1.2207   -6.2670    3.7790 H   0  0  0  0  0  0  0  0  0  0  0  0
   -0.2183   -7.1701    3.8983 H   0  0  0  0  0  0  0  0  0  0  0  0
   -2.5204   -5.9928    0.1604 H   0  0  0  0  0  0  0  0  0  0  0  0
   -1.1891   -0.4147    1.6982 H   0  0  0  0  0  0  0  0  0  0  0  0
   -3.2006   -0.4702    0.7320 H   0  0  0  0  0  0  0  0  0  0  0  0
   -1.2815    1.6299    0.5698 H   0  0  0  0  0  0  0  0  0  0  0  0
   -1.5110    1.8061   -1.6283 H   0  0  0  0  0  0  0  0  0  0  0  0
  2  1  1  1
  2  3  1  0
  3  4  1  0
  4  5  1  0
  5  6  1  0
  5  7  1  0
  7  8  2  0
  7  9  1  0
  2 10  1  0
 10 11  1  0
 11 12  1  0
 12 13  1  0
 13 14  1  0
 14 15  1  0
 15 16  2  0
 16 17  1  0
 17 18  2  0
 18 19  1  0
 18 20  1  0
 20 21  2  0
 21 22  1  0
 22 23  2  0
 13 24  1  0
 24 25  1  0
 24 26  1  0
 26 27  1  0
 26 11  1  0
 23 14  1  0
 23 17  1  0
  1 28  1  0
  1 29  1  0
  1 30  1  0
  3 31  1  0
  3 32  1  0
  4 33  1  0
  4 34  1  0
  5 35  1  1
  6 36  1  0
  6 37  1  0
  9 38  1  0
 10 39  1  0
 10 40  1  0
 11 41  1  6
 13 42  1  6
 15 43  1  0
 19 44  1  0
 19 45  1  0
 19 46  1  0
 21 47  1  0
 24 48  1  1
 25 49  1  0
 26 50  1  1
 27 51  1  0
M  CHG  2   2   1  19   1
M  END
>  <UniqueID>  (6) 
5

>  <SMILES>  (6) 
C[S@@+](CC[C@H](N)C(=O)O)C[C@H]1O[C@@H](n2cnc3c([NH3+])ncnc32)[C@H](O)[C@@H]1O

>  <Energy>  (6) 
78.02966357609348

>  <Genealogy>  (6) 
C[S+](CC[C@H](N)C(=O)O)C[C@H]1O[C@@H](n2cnc3c([NH3+])ncnc32)[C@H](O)[C@@H]1O (protonated)
C[S@@+](CC[C@H](N)C(=O)O)C[C@H]1O[C@@H](n2cnc3c([NH3+])ncnc32)[C@H](O)[C@@H]1O (chirality)
C[S@@+](CC[C@H](N)C(=O)O)C[C@H]1O[C@@H](n2cnc3c([NH3+])ncnc32)[C@H](O)[C@@H]1O (3D coordinates assigned)
C[S@@+](CC[C@H](N)C(=O)O)C[C@H]1O[C@@H](n2cnc3c([NH3+])ncnc32)[C@H](O)[C@@H]1O (nonaromatic ring conformer: 78.02966357609348 kcal/mol)

$$$$
